{
   "completed_at" : "20200611T024701Z",
   "completed_status" : "Success",
   "created_at" : "20200611T024222Z",
   "current_step" : 0,
   "eplusout_err" : "Program Version,EnergyPlus, Version 9.3.0-baff08990c, YMD=2020.06.10 20:46,\n   ** Warning ** GetSurfaceData: Entered Zone Floor Areas differ from calculated Zone Floor Area(s).\n   **   ~~~   ** ...use Output:Diagnostics,DisplayExtraWarnings; to show more details on individual zones.\n   ************* Note that the following warning(s) may/will occur if you have not enclosed your zone completely.\n   ** Warning ** Entered Zone Volumes differ from calculated zone volume(s).\n   **   ~~~   ** ...use Output:Diagnostics,DisplayExtraWarnings; to show more details on individual zones.\n   ** Severe  ** For zone: UNFINISHED ATTIC ZONE it is not possible to calculate the volume from the surrounding surfaces so either provide the volume value or define all the surfaces to fully enclose the zone.\n   ** Warning ** Indicated Zone Volume <= 0.0 for Zone=UNFINISHED ATTIC ZONE\n   **   ~~~   ** The calculated Zone Volume was=0.00\n   **   ~~~   ** The simulation will continue with the Zone Volume set to 10.0 m3. \n   **   ~~~   ** ...use Output:Diagnostics,DisplayExtraWarnings; to show more details on individual zones.\n   ** Warning ** CalculateZoneVolume: 1 zone is not fully enclosed. For more details use:  Output:Diagnostics,DisplayExtrawarnings; \n   ** Warning ** CheckUsedConstructions: There are 1 nominally unused constructions in input.\n   **   ~~~   ** For explicit details on each unused construction, use Output:Diagnostics,DisplayExtraWarnings;\n   ** Warning ** GetRuntimeLanguageUserInput: EnergyManagementSystem:OutputVariable=\"Average Conditioned Zone Temperature using deprecated units designation.\n   **   ~~~   ** ...Units entered in Name (deprecated use)=\"C\"\n   ** Warning ** GetRuntimeLanguageUserInput: EnergyManagementSystem:OutputVariable=\"Conditioned Zone Air Energy Storage Rate using deprecated units designation.\n   **   ~~~   ** ...Units entered in Name (deprecated use)=\"W\"\n   ** Warning ** GetRuntimeLanguageUserInput: EnergyManagementSystem:OutputVariable=\"Conditioned Zone Internal Convective Heat Gain using deprecated units designation.\n   **   ~~~   ** ...Units entered in Name (deprecated use)=\"W\"\n   ** Warning ** GetRuntimeLanguageUserInput: EnergyManagementSystem:OutputVariable=\"Conditioned Zone Interzone Air Transfer Rate using deprecated units designation.\n   **   ~~~   ** ...Units entered in Name (deprecated use)=\"W\"\n   ** Warning ** GetRuntimeLanguageUserInput: EnergyManagementSystem:OutputVariable=\"Conditioned Zone Outdoor Air Transfer Rate using deprecated units designation.\n   **   ~~~   ** ...Units entered in Name (deprecated use)=\"W\"\n   ** Warning ** GetRuntimeLanguageUserInput: EnergyManagementSystem:OutputVariable=\"Conditioned Zone Surface Convection Rate using deprecated units designation.\n   **   ~~~   ** ...Units entered in Name (deprecated use)=\"W\"\n   ** Warning ** GetRuntimeLanguageUserInput: EnergyManagementSystem:OutputVariable=\"Conditioned Zone System Air Transfer Rate using deprecated units designation.\n   **   ~~~   ** ...Units entered in Name (deprecated use)=\"W\"\n   ** Warning ** GetRuntimeLanguageUserInput: EnergyManagementSystem:OutputVariable=\"Conditioned Zone System Convective Heat Gain Rate using deprecated units designation.\n   **   ~~~   ** ...Units entered in Name (deprecated use)=\"W\"\n   ** Warning ** GetRuntimeLanguageUserInput: EnergyManagementSystem:OutputVariable=\"Current Total Capacity using deprecated units designation.\n   **   ~~~   ** ...Units entered in Name (deprecated use)=\"W\"\n   ** Warning ** DetermineShadowingCombinations: There are 1 surfaces which are receiving surfaces and are non-convex.\n   **   ~~~   ** ...Shadowing values may be inaccurate. Check .shd report file for more surface shading details\n   **   ~~~   ** ...Add Output:Diagnostics,DisplayExtraWarnings; to see individual warnings for each surface.\n   ** Severe  ** DetermineShadowingCombinations: There are 1 surfaces which are casting surfaces and are non-convex.\n   **   ~~~   ** ...Shadowing values may be inaccurate. Check .shd report file for more surface shading details\n   **   ~~~   ** ...Add Output:Diagnostics,DisplayExtraWarnings; to see individual severes for each surface.\n   ** Warning ** The Standard Ratings is calculated for Coil:Cooling:DX:SingleSpeed = RES AC COOLING COIL but not at the AHRI test condition due to curve out of bound.\n   **   ~~~   **  Review the Standard Ratings calculations in the Engineering Reference for this coil type. Also, use Output:Diagnostics, DisplayExtraWarnings for further guidance.\n   ** Warning ** Check input. Pump nominal power or motor efficiency is set to 0, for pump=PUMP VARIABLE SPEED 1\n   ** Warning ** Output:Meter: invalid Key Name=\"DISTRICTCOOLING:FACILITY\" - not found.\n   ** Warning ** Output:Meter: invalid Key Name=\"DISTRICTHEATING:FACILITY\" - not found.\n   ** Warning ** Output:Meter:MeterFileOnly requested for \"Electricity:Facility\" (TimeStep), already on \"Output:Meter\". Will report to both eplusout.eso and eplusout.mtr\n   ************* Testing Individual Branch Integrity\n   ************* All Branches passed integrity testing\n   ************* Testing Individual Supply Air Path Integrity\n   ************* All Supply Air Paths passed integrity testing\n   ************* Testing Individual Return Air Path Integrity\n   ************* All Return Air Paths passed integrity testing\n   ************* No node connection errors were found.\n   ************* Beginning Simulation\n   ** Warning ** CalcDoe2DXCoil: Coil:Cooling:DX:SingleSpeed=\"RES AC COOLING COIL\" - Air volume flow rate per watt of rated total cooling capacity is out of range at 6.729E-005 m3/s/W.\n   **   ~~~   **  Environment=RUN PERIOD 1, at Simulation time=07/13 00:00 - 00:05\n   **   ~~~   ** Expected range for VolumeFlowPerRatedTotalCapacity=[2.684E-005--6.713E-005]\n   **   ~~~   ** Possible causes include inconsistent air flow rates in system components,\n   **   ~~~   ** or variable air volume [VAV] system using incorrect coil type.\n   ** Warning ** Processing Monthly Tabular Reports: Variable names not valid for this simulation\n   **   ~~~   ** ...use Output:Diagnostics,DisplayExtraWarnings; to show more details on individual variables.\n   ** Warning ** The resource referenced by LifeCycleCost:UsePriceEscalation= \"U.S. AVG  COMMERCIAL-ELECTRICITY\" has no energy cost. \n   **   ~~~   ** ... It is likely that the wrong resource is used. The resource should match the meter used in Utility:Tariff.\n   ** Warning ** The resource referenced by LifeCycleCost:UsePriceEscalation= \"U.S. AVG  COMMERCIAL-DISTILLATE OIL\" has no energy cost. \n   **   ~~~   ** ... It is likely that the wrong resource is used. The resource should match the meter used in Utility:Tariff.\n   ** Warning ** The resource referenced by LifeCycleCost:UsePriceEscalation= \"U.S. AVG  COMMERCIAL-RESIDUAL OIL\" has no energy cost. \n   **   ~~~   ** ... It is likely that the wrong resource is used. The resource should match the meter used in Utility:Tariff.\n   ** Warning ** The resource referenced by LifeCycleCost:UsePriceEscalation= \"U.S. AVG  COMMERCIAL-NATURAL GAS\" has no energy cost. \n   **   ~~~   ** ... It is likely that the wrong resource is used. The resource should match the meter used in Utility:Tariff.\n   ** Warning ** The resource referenced by LifeCycleCost:UsePriceEscalation= \"U.S. AVG  COMMERCIAL-COAL\" has no energy cost. \n   **   ~~~   ** ... It is likely that the wrong resource is used. The resource should match the meter used in Utility:Tariff.\n   ************* Simulation Error Summary *************\n   ************* There are 2 unused schedules in input.\n   ************* There are 44 unused week schedules in input.\n   ************* There are 26 unused day schedules in input.\n   ************* Use Output:Diagnostics,DisplayUnusedSchedules; to see them.\n   *************\n   ************* ===== Recurring Surface Error Summary =====\n   ************* The following surface error messages occurred.\n   *************\n   ************* Base Surface does not surround subsurface errors occuring...\n   ************* Check that the GlobalGeometryRules object is expressing the proper starting corner and direction [CounterClockwise/Clockwise]\n   *************\n   ** Warning ** Base surface does not surround subsurface (CHKSBS), Overlap Status=No-Overlap\n   **   ~~~   **   The base surround errors occurred 1 times.\n   **   ~~~   ** Surface \"SURFACE 44\" misses SubSurface \"UNIT 1 - SURFACE 13 - DOOR\"\n   *************\n   **   ~~~   **   The base surround errors occurred 1 times (total).\n   *************\n   *************\n   ************* ===== Recurring Error Summary =====\n   ************* The following recurring error messages occurred.\n   *************\n   *************  ** Warning ** CalcDoe2DXCoil: Coil:Cooling:DX:SingleSpeed=\"RES AC COOLING COIL\" - Air volume flow rate per watt of rated total cooling capacity is out of range error continues...\n   *************  **   ~~~   **   This error occurred 8632 total times;\n   *************  **   ~~~   **   during Warmup 0 times;\n   *************  **   ~~~   **   during Sizing 0 times.\n   *************  **   ~~~   **   Max=6.780400E-005  Min=6.713090E-005\n   *************\n   *************\n   ************* ===== Final Error Summary =====\n   ************* The following error categories occurred.  Consider correcting or noting.\n   ************* Nominally Unused Constructions\n   ************* ..The nominally unused constructions warning is provided to alert you to potential conditions that can cause\n   ************* ..extra time during simulation. Each construction is calculated by the algorithm indicated in the HeatBalanceAlgorithm\n   ************* ..object. You may remove the constructions indicated (when you use the DisplayExtraWarnings option).\n   *************\n   ************* EnergyPlus Warmup Error Summary. During Warmup: 0 Warning; 0 Severe Errors.\n   ************* EnergyPlus Sizing Error Summary. During Sizing: 0 Warning; 0 Severe Errors.\n   ************* EnergyPlus Completed Successfully-- 8659 Warning; 2 Severe Errors; Elapsed Time=00hr 00min  2.29sec\n",
   "file_paths" : 
   [
      "C:/Users/Zahra Fallahi/AppData/Local/Temp/osmodel-1591843342-0/resources/generated_files",
      "./files",
      "./weather",
      "../../files",
      "../../weather",
      "./"
   ],
   "hash" : "CE097383",
   "seed_file" : "../in.osm",
   "started_at" : "20200611T024656Z",
   "steps" : [],
   "updated_at" : "20200611T024701Z",
   "weather_file" : "USA_CO_Boulder-Broomfield-Jefferson.County.AP.724699_TMY3.epw"
}